@<TRIPOS>MOLECULE
dps
 25 26 0 0 0
SMALL
GASTEIGER

@<TRIPOS>ATOM
      1 H          11.1740   -0.7570   10.5790 H       1  UNL1        0.0637
      2 C          10.9700   -1.4690    9.7920 C.ar    1  UNL1       -0.0365
      3 C          11.9570   -2.3180    9.3150 C.ar    1  UNL1       -0.0599
      4 C           9.6920   -1.5650    9.2640 C.ar    1  UNL1        0.0936
      5 H          12.9570   -2.2600    9.7220 H       1  UNL1        0.0618
      6 C          11.6600   -3.2430    8.3230 C.ar    1  UNL1       -0.0616
      7 C           9.3780   -2.4880    8.2790 C.ar    1  UNL1       -0.0365
      8 S           8.4050   -0.4540    9.8700 S.O2    1  UNL1        0.0251
      9 H          12.4330   -3.9040    7.9540 H       1  UNL1        0.0618
     10 C          10.3730   -3.3310    7.8090 C.ar    1  UNL1       -0.0599
     11 H           8.3650   -2.5550    7.9090 H       1  UNL1        0.0637
     12 C           8.5340    0.9550    8.7500 C.ar    1  UNL1        0.0936
     13 O           8.8080    0.0050   11.2150 O.2     1  UNL1       -0.1643
     14 O           7.1010   -1.1040    9.6230 O.2     1  UNL1       -0.1643
     15 C           7.7750    0.9660    7.5900 C.ar    1  UNL1       -0.0365
     16 C           9.3910    1.9960    9.0700 C.ar    1  UNL1       -0.0365
     17 H           7.0960    0.1520    7.3840 H       1  UNL1        0.0637
     18 C           7.8870    2.0460    6.7270 C.ar    1  UNL1       -0.0599
     19 H           9.9470    1.9690    9.9970 H       1  UNL1        0.0637
     20 C           9.4950    3.0700    8.2000 C.ar    1  UNL1       -0.0599
     21 H           7.2970    2.0730    5.8210 H       1  UNL1        0.0618
     22 C           8.7480    3.0930    7.0300 C.ar    1  UNL1       -0.0616
     23 H          10.1540    3.8930    8.4400 H       1  UNL1        0.0618
     24 H           8.8310    3.9350    6.3540 H       1  UNL1        0.0618
     25 H          10.1420   -4.0610    7.0460 H       1  UNL1        0.0618
@<TRIPOS>BOND
     1    21    18    1
     2    24    22    1
     3    18    22   ar
     4    18    15   ar
     5    22    20   ar
     6    25    10    1
     7    17    15    1
     8    15    12   ar
     9    10     7   ar
    10    10     6   ar
    11    11     7    1
    12     9     6    1
    13    20    23    1
    14    20    16   ar
    15     7     4   ar
    16     6     3   ar
    17    12    16   ar
    18    12     8    1
    19    16    19    1
    20     4     2   ar
    21     4     8    1
    22     3     5    1
    23     3     2   ar
    24    14     8    2
    25     2     1    1
    26     8    13    2
